
  ACCLDraw02252512122D
Schatzschneider's example carbene
  0  0  0     0  0            999 V3000
M  V30 BEGIN CTAB
M  V30 COUNTS 27 29 0 0 0
M  V30 BEGIN ATOM
M  V30 1 C 7.009 -2.8151 0 0 
M  V30 2 C 9.0513 -2.8146 0 0 
M  V30 3 C 8.0321 -2.2248 0 0 
M  V30 4 C 9.0513 -3.996 0 0 
M  V30 5 C 7.009 -4.0013 0 0 
M  V30 6 N 8.0347 -4.5856 0 0 
M  V30 7 N 5.9858 -4.592 0 0 CFG=3 
M  V30 8 N 10.0745 -4.5867 0 0 CFG=3 
M  V30 9 C 5.8624 -5.7664 0 0 CFG=3 VAL=3 
M  V30 10 N 4.7073 -6.012 0 0 CFG=3 
M  V30 11 C 4.1169 -4.9893 0 0 
M  V30 12 C 4.9071 -4.1117 0 0 
M  V30 13 C 11.1526 -4.1067 0 0 
M  V30 14 C 11.9423 -4.9838 0 0 
M  V30 15 N 11.3523 -6.0058 0 0 CFG=3 
M  V30 16 C 10.1978 -5.7604 0 0 CFG=3 VAL=3 
M  V30 17 C 4.1169 -7.0345 0 0 
M  V30 18 C 11.9426 -7.0283 0 0 
M  V30 19 Pt 7.8536 -7.1013 0 0 
M  V30 20 Cl 8.1592 -8.2418 0 0 
M  V30 21 F 14.9822 -4.5638 0 0 
M  V30 22 P 15.7856 -3.698 0 0 
M  V30 23 F 16.5889 -2.8322 0 0 
M  V30 24 F 16.1337 -4.8266 0 0 
M  V30 25 F 16.937 -3.9608 0 0 
M  V30 26 F 14.6341 -3.4352 0 0 
M  V30 27 F 15.4374 -2.5694 0 0 
M  V30 END ATOM
M  V30 BEGIN BOND
M  V30 1 1 6 4 
M  V30 2 2 5 6 
M  V30 3 1 2 3 
M  V30 4 1 1 5 
M  V30 5 2 4 2 
M  V30 6 2 3 1 
M  V30 7 1 5 7 
M  V30 8 1 4 8 
M  V30 9 2 11 12 
M  V30 10 1 10 11 
M  V30 11 1 9 10 
M  V30 12 1 9 7 
M  V30 13 1 12 7 
M  V30 14 1 15 16 
M  V30 15 1 14 15 
M  V30 16 2 13 14 
M  V30 17 1 13 8 
M  V30 18 1 16 8 
M  V30 19 1 10 17 
M  V30 20 1 15 18 
M  V30 21 1 9 19 
M  V30 22 1 16 19 
M  V30 23 1 19 20 
M  V30 24 1 21 22 
M  V30 25 1 22 23 
M  V30 26 1 22 24 
M  V30 27 1 22 25 
M  V30 28 1 22 26 
M  V30 29 1 22 27 
M  V30 END BOND
M  V30 END CTAB
M  END
