
  ACCLDraw02252512112D
Schatzschneider's example carbene
 27 29  0  0  0  0  0  0  0  0999 V2000
    7.0090   -2.8151    0.0000 C   0  0  0  0  0  0  0  0  0  0  0  0
    9.0513   -2.8146    0.0000 C   0  0  0  0  0  0  0  0  0  0  0  0
    8.0321   -2.2248    0.0000 C   0  0  0  0  0  0  0  0  0  0  0  0
    9.0513   -3.9960    0.0000 C   0  0  0  0  0  0  0  0  0  0  0  0
    7.0090   -4.0013    0.0000 C   0  0  0  0  0  0  0  0  0  0  0  0
    8.0347   -4.5856    0.0000 N   0  0  0  0  0  0  0  0  0  0  0  0
    5.9858   -4.5920    0.0000 N   0  0  3  0  0  0  0  0  0  0  0  0
   10.0745   -4.5867    0.0000 N   0  0  3  0  0  0  0  0  0  0  0  0
    5.8624   -5.7664    0.0000 C   0  0  3  0  0  3  0  0  0  0  0  0
    4.7073   -6.0120    0.0000 N   0  0  3  0  0  0  0  0  0  0  0  0
    4.1169   -4.9893    0.0000 C   0  0  0  0  0  0  0  0  0  0  0  0
    4.9071   -4.1117    0.0000 C   0  0  0  0  0  0  0  0  0  0  0  0
   11.1526   -4.1067    0.0000 C   0  0  0  0  0  0  0  0  0  0  0  0
   11.9423   -4.9838    0.0000 C   0  0  0  0  0  0  0  0  0  0  0  0
   11.3523   -6.0058    0.0000 N   0  0  3  0  0  0  0  0  0  0  0  0
   10.1978   -5.7604    0.0000 C   0  0  3  0  0  3  0  0  0  0  0  0
    4.1169   -7.0345    0.0000 C   0  0  0  0  0  0  0  0  0  0  0  0
   11.9426   -7.0283    0.0000 C   0  0  0  0  0  0  0  0  0  0  0  0
    7.8536   -7.1013    0.0000 Pt  0  0  0  0  0  0  0  0  0  0  0  0
    8.1592   -8.2418    0.0000 Cl  0  0  0  0  0  0  0  0  0  0  0  0
   14.9822   -4.5638    0.0000 F   0  0  0  0  0  0  0  0  0  0  0  0
   15.7856   -3.6980    0.0000 P   0  0  0  0  0  0  0  0  0  0  0  0
   16.5889   -2.8322    0.0000 F   0  0  0  0  0  0  0  0  0  0  0  0
   16.1337   -4.8266    0.0000 F   0  0  0  0  0  0  0  0  0  0  0  0
   16.9370   -3.9608    0.0000 F   0  0  0  0  0  0  0  0  0  0  0  0
   14.6341   -3.4352    0.0000 F   0  0  0  0  0  0  0  0  0  0  0  0
   15.4374   -2.5694    0.0000 F   0  0  0  0  0  0  0  0  0  0  0  0
  6  4  1  0  0  0  0
  5  6  2  0  0  0  0
  2  3  1  0  0  0  0
  1  5  1  0  0  0  0
  4  2  2  0  0  0  0
  3  1  2  0  0  0  0
  5  7  1  0  0  0  0
  4  8  1  0  0  0  0
 11 12  2  0  0  0  0
 10 11  1  0  0  0  0
  9 10  1  0  0  0  0
  9  7  1  0  0  0  0
 12  7  1  0  0  0  0
 15 16  1  0  0  0  0
 14 15  1  0  0  0  0
 13 14  2  0  0  0  0
 13  8  1  0  0  0  0
 16  8  1  0  0  0  0
 10 17  1  0  0  0  0
 15 18  1  0  0  0  0
  9 19  1  0  0  0  0
 16 19  1  0  0  0  0
 19 20  1  0  0  0  0
 21 22  1  0  0  0  0
 22 23  1  0  0  0  0
 22 24  1  0  0  0  0
 22 25  1  0  0  0  0
 22 26  1  0  0  0  0
 22 27  1  0  0  0  0
M  END
